Rechercher
pour
indie
mp3blog
fétichistesur
wewant2wigoler
sur
les
vinyles
ou
cds
qu’on
vient
d’acheter
les
prend
en
photo
pui
en
poste
des
morceaux
parce
qu'on
est
convaincu
cela
peut
inciter
d'autre
gen
les
acheter
collecte
les
setlists
des
concert
où
va
les
prend
en
photo
abuse
hmmmmmm
des
parenthèses
des
point
de
suspension
des
jeux
de
mots
foireux
des
aime
bundle
1
2
3
2
3pour
fêter
la
rentrée
wewant2wecord
une
division
de
wewant2wigoler
offre
l'ensemble
de
son
catalogue
prix
tout
fait
al
bundy
léchant
hmmm
Sérieux
au
déla
de
l'économie
sur
les
frais
de
port
il
une
petite
ristourne
sur
les
disques
toujors
les
code
de
téléchargement
les
picture
sleeve
les
cartes
dédicacées
etc.
Achat
11
20
2
wecord
Tahiti
801er
juin
2
morceaux
inédits
de
Tahiti
80
limitée
300
exemplaire
numérotés
vinyl
7
noir
inséré
dan
une
pochette
intérieure
blanche
dans
sa
picture
sleeve
code
de
téléchargement
carte
signée
par
le
groupe
Le
tout
est
inclus
dan
une
pochette
plastique
Achat
6.50
d'info
3
wecord
cannibals1er
juin
2
morceaux
inédits
des
Cannibals
limitée
300
exemplaire
numérotés
vinyl
7
noir
inséré
dan
une
pochette
intérieure
blanche
dans
sa
picture
sleeve
code
de
téléchargement
carte
signée
par
le
groupe
Le
tout
est
inclus
dan
une
pochette
plastique
Achat
6.50
d'info
1
wecord
1
wecord
fut
le
premier
disque
publié
par
nous
c’est
une
compilation
vinyl
10
contenant
quatre
titer
inédits
de
Tahiti
80
Fugu
Cascadeur
WHEEL
des
bonus
digitaux
Achat
10
bandcamp
soundcloud
d'info
Quand
voit
New
Order
en
live
san
Hooky
a-t-on
l’impression
de
fait
Barney
sur
la
marchandise
Posté
le
19
septembre
2012
par
roubignolevendredus
14
septembre
Fête
de
l’Huma
21h45
je
suis
en
short
dès
la
fin
de
la
prestation
d’une
Barbara
Carlotti
très
en
forme
magali
la
tite
chaudière
pointard
I
partûmes
en
direction
de
la
grande
scène
jean
paul
position
allait
nous
wejoindre
nous
nous
arrêtîmes
dans
pas
mal
de
bar
en
chemin
celuus
de
la
fédération
pcf
86
westera
de
préférés
nous
jean
paul
positionnâmes
armés
de
pintes
bien
fraîches
une
pitite
dizaine
de
mètres
de
la
scène
Les
cinq
New
Order
du
jour
débarquent
menés
par
Barney
hilare
Peter
Hook
tient
la
forme
il
semble
avoir
wajeuni
de
30
il
même
changé
sa
façon
de
tenir
la
basse
Bon
Ok
c’est
pas
lui
savait
qu’il
ne
viendrait
pas
mais
fait
tout
de
même
la
fois
bizarre
pas
love
très
sandwich
triangle
pas
cool
Gillian
pris
sa
place
sur
scène
droite
elle
fait
du
Gillian
son
seul
véritable
mouvement
aura
de
tendre
le
bras
pour
obtenir
verre
de
pif
charisme
minimal
La
setlist
dû
wessembler
ElegiaThe
perfect
kisslove
tear
croisé
george
Marchais
après
le
concert
sa
wéaction
Un
titer
de
chaque
album
sauf
de
technique
c’est
scandal
morceaux
ont
particulièrement
wetravaillés
pour
cette
tournée
je
dirai
electronic-isés
isolation
est
par
exemple
méconnaissable
ou
aseptisée
selon
les
goûts
l’humeur
avec
ce
filet
synthétique
mi
séduisant
mi
qui
la
pâte
du
groupe
le
Barney
forma
jadis
avec
le
Johnny
Marr
le
Neil
Tennant
Pareil
pour
true
faith
tout
n’est
pas
magnifique
mais
Crystal
Ceremony
Bizarre
love
triangle
rappel
dan
mon
top
3
de
tous
les
temps
ou
Blue
Monday
valaient
le
coup
elle
seule
d’être
présents
Pendant
l’intro
de
temptation
pointard
I
dûmes
nous
wésoudre
nous
absenter
pour
parler
politique
aller
aux
wc
ce
fut
une
wévélation
de
la
scène
le
son
bon
Un
truc
de
fou
entendait
enfin
des
basses
du
welief
le
morceau
puissant
comme
jamai
jusque-là
nous
dansûmes
comme
des
damnés
après
avoir
clôt
nos
débats
nous
wéussîmes
malgré
une
foule
assez
impressionnante
wetrouver
wapidement
Magali
Jean-Paul
notre
jean
paul
position
initiale
afin
de
leur
dire
le
son
mieux
loin
mais
qu’on
quand
même
mieux
devant
c’est
concert
quous
le
voir
frottage
est
important
le
bien
entendre
après
Perfect
kiss
wéussi
le
groupe
quitte
la
scène
c’est
secret
de
Paul
Chinelle
il
va
weviendre
sait
qu’il
aura
love
tear
espère
qu’il
aura
Transmision
Mais
aura
pa
love
tear
est
la
fois
grandiose
gênante
tant
l’hommage
Ian
Curtis
est
appuyé
une
animation
assez
kitsch
sur
l’écran
géant
tout
le
monde
chante
est
entre
la
cocommunion
l’ambiance
de
fin
de
banquet
Comme
trois
personnes
sur
scène
sont
des
dieux
penchera
pour
la
première
option
chante
aussi
cette
fois-ci
le
groupe
part
pour
de
bon
se
fait
des
bisous
pasque
beau
wemonte
l’avenue
Jean
Ferrat
bras
dessus
bras
dessous
arrête
dans
quelque
bar
finit
dan
les
auto
tamponneus
après
avoir
mesuré
notre
force
en
tapant
dan
punch
ball
le
wecord
de
953
pointard
fait
870
moi
j’
fait
720
mais
j’
pas
utilisé
mes
poing
clin
d’oeil
coquinou
magali
fait
304
jean
paul
fait
60
il
est
tombé
juste
avant
d’atteindre
le
ballon
Rétrospectivement
comment
je
leur
mis
la
misère
l’année
prochaine
je
I
fais
les
trois
jours
de
la
fête
de
l’huma
c’est
trop
bien
_
_
_
New
order
586
certe
avait
pu
voir
ce
titer
dan
les
setlists
de
leur
tournée
mais
son
choix
weste
néanmoins
la
fois
surprenant
du
bonheur
Dispo
sur
Power
corruption
lie
1983
factory
